test/test_files/validation_tests/case3375wp.m
function mpc = case3375wp
%CASE3375WP  Power flow data for Polish system - winter 2007-08 evening peak.
%   Please see CASEFORMAT for details on the case file format.
%
%   This case represents the Polish 400, 220 and 110 kV networks during
%   winter 2007-08 evening peak conditions and includes some equivalents
%   of the German, Czech and Slovak networks.
%
%   This data was graciously provided by, and is distributed with the
%   permission of, Roman Korab <roman.korab@polsl.pl>.
%
%   Note: Bus 10287 is isolated, resulting in a singular power flow
%         Jacobian, and has been commented out. (RDZ 4/24/2015)

%   MATPOWER

%% MATPOWER Case Format : Version 2
mpc.version = '2';

%%-----  Power Flow Data  -----%%
%% system MVA base
mpc.baseMVA = 100;

%% bus data
%    bus_i    type    Pd    Qd    Gs    Bs    area    Vm    Va    baseKV    zone    Vmax    Vmin
mpc.bus = [
    10000    1    0    0    0    0    0    1.04687    -10.70488    400    0    1.05    0.95;
    10001    1    0    0    0    0    0    1.04837    -15.04781    400    0    1.05    0.95;
    10002    1    0    0    0    0    0    1.07251    -16.96552    220    0    1.11    0.95;
    10003    1    0    0    0    0    0    1.04525    -17.93119    400    0    1.05    0.95;
    10004    1    0    0    0    0    0    1.04396    -13.97333    400    0    1.05    0.95;
    10005    1    0    0    0    0    0    1.04437    -16.49872    400    0    1.05    0.95;
    10006    1    0    0    0    0    0    1.04078    -9.90352    400    0    1.05    0.95;
    10007    1    0    0    0    0    0    1.07323    -15.91864    220    0    1.11    0.95;
    10008    1    0    0    0    0    0    1.07074    -18.07504    220    0    1.11    0.95;
    10009    1    0    0    0    0    0    1.04438    -17.28051    400    0    1.05    0.95;
    10010    1    0    0    0    0    0    1.04912    -12.07385    400    0    1.05    0.95;
    10011    1    0    0    0    0    0    1.04471    -18.59454    400    0    1.05    0.95;
    10012    1    0    0    0    0    0    1.04471    -18.59454    400    0    1.05    0.95;
    10013    1    0    0    0    0    0    1.04559    -12.19767    400    0    1.05    0.95;
    10014    1    0    0    0    0    0    1.0458    -12.22917    400    0    1.05    0.95;
    10015    1    0    0    0    0    0    1.0447    -18.15425    400    0    1.05    0.95;
    10016    1    0    0    0    0    0    1.04578    -12.11669    400    0    1.05    0.95;
    10017    1    0    0    0    0    0    1.04572    -12.12076    400    0    1.05    0.95;
    10018    1    0    0    0    0    0    1.0457    -12.11351    400    0    1.05    0.95;
    10019    1    0    0    0    0    0    1.0458    -12.2292    400    0    1.05    0.95;
    10020    1    0    0    0    0    0    1.05    -14.07745    400    0    1.05    0.95;
    10021    1    0    0    0    0    0    1.07631    -16.60737    220    0    1.11    0.95;
    10022    1    0    0    0    0    0    1.07483    -17.01984    220    0    1.11    0.95;
    10023    1    0    0    0    0    0    1.04582    -11.75662    400    0    1.05    0.95;
    10024    1    0    0    0    0    0    1.04557    -11.85608    400    0    1.05    0.95;
    10025    1    0    0    0    0    0    1.04573    -11.8032    400    0    1.05    0.95;
    10026    1    0    0    0    0    0    1.04137    -8.03514    400    0    1.05    0.95;
    10027    1    0    0    0    0    0    1.04176    -7.76212    400    0    1.05    0.95;
    10028    1    0    0    0    0    0    1.04187    -7.56465    400    0    1.05    0.95;
    10029    1    0    0    0    0    0    1.04913    -11.5362    400    0    1.05    0.95;
    10030    1    0    0    0    0    0    1.04912    -11.53101    400    0    1.05    0.95;
    10031    1    0    0    0    0    0    1.08683    -11.59324    220    0    1.11    0.95;
    10032    1    0    0    0    0    0    1.04142    -8.05065    400    0    1.05    0.95;
    10033    1    0    0    0    0    0    1.04141    -8.05055    400    0    1.05    0.95;
    10034    1    0    0    0    0    0    1.0426    -14.14929    400    0    1.05    0.95;
    10035    1    0    0    0    0    0    1.07253    -12.37237    220    0    1.11    0.95;
    10036    1    0    0    0    0    0    1.07259    -12.38001    220    0    1.11    0.95;
    10037    1    0    0    0    0    0    1.04141    -8.14861    400    0    1.05    0.95;
    10038    1    0    0    0    0    0    1.04145    -8.15657    400    0    1.05    0.95;
    10039    1    0    0    0    0    0    1.04189    -8.20445    400    0    1.05    0.95;
    10040    1    0    0    0    0    0    1.04506    -12.91957    400    0    1.05    0.95;
    10041    1    0    0    0    0    0    1.04919    -11.66977    400    0    1.05    0.95;
    10042    1    0    0    0    0    0    1.04486    -18.81658    400    0    1.05    0.95;
    10043    1    0    0    0    0    0    1.06595    -14.1772    220    0    1.11    0.95;
    10044    1    0    0    0    0    0    1.07305    -13.3306    220    0    1.11    0.95;
    10045    1    0    0    0    0    0    1.06741    -18.93627    220    0    1.11    0.95;
    10046    1    0    0    0    0    0    1.07479    -17.01935    220    0    1.11    0.95;
    10047    1    0    0    0    0    0    1.04347    -19.72898    400    0    1.05    0.95;
    10048    1    0    0    0    0    0    1.04593    -11.20792    400    0    1.05    0.95;
    10049    1    0    0    0    0    0    1.04881    -11.71874    400    0    1.05    0.95;
    10050    1    0    0    0    0    0    1.04919    -11.66977    400    0    1.05    0.95;
    10051    1    0    0    0    0    0    1.06435    -18.64806    220    0    1.11    0.95;
    10052    1    0    0    0    0    0    1.04276    -16.39521    400    0    1.05    0.95;
    10053    1    0    0    0    0    0    1.08851    -11.03458    220    0    1.11    0.95;
    10054    1    0    0    0    0    0    1.08851    -11.03458    220    0    1.11    0.95;
    10055    1    0    0    0    0    0    1.08025    -14.93844    220    0    1.11    0.95;
    10056    1    0    0    0    0    0    1.04177    -10.15342    400    0    1.05    0.95;
    10057    1    0    0    0    0    0    1.0397    -9.14536    400    0    1.05    0.95;
    10058    1    0    0    0    0    0    1.05983    -16.70686    220    0    1.11    0.95;
    10059    1    0    0    0    0    0    1.05    -15.8165    400    0    1.05    0.95;
    10060    1    0    0    0    0    0    1.04143    -8.15259    400    0    1.05    0.95;
    10061    1    0    0    0    0    0    1.04177    -10.15342    400    0    1.05    0.95;
    10062    1    0    0    0    0    0    1.04302    -15.75403    400    0    1.05    0.95;
    10063    1    0    0    0    0    0    1.04579    -12.22916    400    0    1.05    0.95;
    10064    1    0    0    0    0    0    1.06571    -16.28209    220    0    1.11    0.95;
    10065    1    0    0    0    0    0    1.04673    -13.53303    400    0    1.05    0.95;
    10066    1    0    0    0    0    0    1.04876    -12.21379    400    0    1.05    0.95;
    10067    1    0    0    0    0    0    1.06752    -15.36971    220    0    1.11    0.95;
    10068    1    0    0    0    0    0    1.04901    -13.12103    400    0    1.05    0.95;
    10069    1    0    0    0    0    0    1.06642    -19.22427    220    0    1.11    0.95;
    10070    1    0    0    0    0    0    1.04467    -18.59429    400    0    1.05    0.95;
    10071    2    16    8    0    0    0    1.07617    -15.28959    220    0    1.11    0.95;
    10072    1    0    0    0    0    0    1.08597    -11.76891    220    0    1.11    0.95;
    10073    1    0    0    0    0    1    1.0747    -13.36695    220    0    1.11    0.95;
    10074    1    0    0    0    0    0    1.07385    -13.34281    220    0    1.11    0.95;
    10075    1    0    0    0    0    0    1.07257    -14.1716    220    0    1.11    0.95;
    10076    1    0    0    0    0    0    1.04556    -11.85601    400    0    1.05    0.95;
    10077    1    0    0    0    0    0    1.04556    -11.85601    400    0    1.05    0.95;
    10078    1    305.5    -14    0    0    0    1.03456    -8.21584    400    0    1.05    0.95;
    10079    2    -1529.6    4542.9    0    0    0    1.01319    -0.05172    400    0    1.05    0.95;
    10080    2    -159.1    -181    0    0    0    1.02855    -4.88451    400    0    1.05    0.95;
    10081    1    -1078.3    -374.1    0    0    0    1.03447    -0.91888    400    0    1.05    0.95;
    10082    1    943.2    310.2    0    0    0    1.00371    -4.43737    400    0    1.05    0.95;
    10083    1    97    26    0    0    0    1.04136    -5.54383    400    0    1.05    0.95;
    10084    1    0.6    160    0    0    0    1.04213    -5.41022    400    0    1.05    0.95;
    10085    1    161.6    183.6    0    0    0    1.04114    -5.52506    400    0    1.05    0.95;
    10086    1    288.6    221.6    0    0    0    1.04113    -5.52774    400    0    1.05    0.95;
    10087    1    0    0    0    0    0    1.0431    -5.31775    400    0    1.05    0.95;
    10088    1    0    0    0    0    0    1.08895    -5.62324    220    0    1.11    0.95;
    10089    1    0    0    0    0    0    1.08671    -5.74853    220    0    1.11    0.95;
    10090    2    274.4    279.6    0    0    0    1.04139    -5.51893    400    0    1.05    0.95;
    10091    1    94.2    111.8    0    0    0    1.04083    -5.53521    400    0    1.05    0.95;
    10092    1    0    0    0    0    0    1.0851    -5.81601    220    0    1.11    0.95;
    10093    1    0    0    0    0    0    1.08774    -5.67067    220    0    1.11    0.95;
    10094    2    0    0    0    0    0    1.03526    -4.64081    400    0    1.05    0.95;
    10095    2    4.4    -2590.1    0    0    0    1.02969    -6.03574    400    0    1.05    0.95;
    10096    1    488    79.1    0    0    0    1.02127    -6.23895    400    0    1.05    0.95;
    10097    1    601    147.9    0    0    0    1.02468    -6.14923    400    0    1.05    0.95;
    10098    1    527    265.1    0    0    0    1.02591    -5.42562    400    0    1.05    0.95;
    10099    1    0    0    0    0    0    1.00482    -2.42812    400    0    1.05    0.95;
    10100    2    0    0    0    0    0    1.04073    -0.86289    400    0    1.05    0.95;
    10101    1    0    0    0    0    0    1.03993    -13.17887    220    0    1.11    0.95;
    10102    1    120    25    0    0    0    1.0587    -7.39157    220    0    1.11    0.95;
    10103    1    0    0    0    0    0    1.03974    -3.47171    400    0    1.05    0.95;
    10104    2    200.2    48.7    0    0    0    1.04409    -2.35603    400    0    1.05    0.95;
    10105    1    0    0    0    0    0    1.06465    -7.80747    220    0    1.11    0.95;
    10106    1    0    0    0    0    0    1.03444    -4.47152    400    0    1.05    0.95;
    10107    1    0    0    0    0    0    1.04224    -3.12182    400    0    1.05    0.95;
    10108    1    0    0    0    0    0    1.04282    -2.80538    400    0    1.05    0.95;
    10109    1    0    0    0    0    0    1.0422    -3.04523    400    0    1.05    0.95;
    10110    1    0    0    0    0    0    1.0428    -2.72415    400    0    1.05    0.95;
    10111    1    0    0    0    0    0    1.02625    -1.81906    400    0    1.05    0.95;
    10112    1    0    0    0    0    0    1.10809    -5.03261    220    0    1.11    0.95;
    10113    1    0    0    0    0    0    1.01806    -2.51227    400    0    1.05    0.95;
    10114    1    0    0    0    0    0    1.09061    -6.95533    220    0    1.11    0.95;
    10115    2    0    0    0    0    0    1.00234    -2.20727    400    0    1.05    0.95;
    10116    2    0    0    0    0    0    1.00234    -2.20727    400    0    1.05    0.95;
    10117    1    0    0    0    0    0    1.03218    -5.38558    400    0    1.05    0.95;
    10118    2    0    0    0    0    0    1.04097    -0.52486    400    0    1.05    0.95;
    10119    1    0    0    0    0    0    1.01219    -3.2983    400    0    1.05    0.95;
    10120    1    0    0    0    0    0    1.03983    -3.96258    400    0    1.05    0.95;
    10121    1    80    20    0    0    0    1.05717    -6.34415    220    0    1.11    0.95;
    10122    1    0    0    0    0    0    1.05022    -9.78444    220    0    1.11    0.95;
    10123    1    0    0    0    0    0    1.04891    -3.71076    400    0    1.05    0.95;
    10124    1    0    0    0    0    0    1.05    -0.9584    400    0    1.05    0.95;
    10125    1    0    0    0    0    0    1.01317    -4.39221    400    0    1.05    0.95;
    10126    2    0    0    0    0    0    1.00802    -3.54138    400    0    1.05    0.95;
    10127    1    0    0    0    0    0    1.09612    -7.22408    220    0    1.11    0.95;
    10128    1    0    0    0    0    0    1.09612    -7.22408    220    0    1.11    0.95;
    10129    2    0.2    100    0    0    0    1.04538    0.02453    400    0    1.05    0.95;
    10130    1    0    0    0    0    0    1.04546    -0.00196    400    0    1.05    0.95;
    10131    1    0    0    0    0    0    1.00966    -4.04069    400    0    1.05    0.95;
    10132    2    0    0    0    0    0    1.02908    -4.54928    400    0    1.05    0.95;
    10133    1    0    0    0    0    0    1.05    -4.33366    400    0    1.05    0.95;
    10134    1    0    0    0    0    0    1.04707    -4.96621    400    0    1.05    0.95;
    10135    1    0    0    0    0    0    1.05137    -5.13694    220    0    1.11    0.95;
    10136    1    0    0    0    0    0    1.07164    -7.48745    220    0    1.11    0.95;
    10137    1    0    0    0    0    0    1.03873    -15.98919    220    0    1.11    0.95;
    10138    1    0    0    0    0    0    1.03401    -5.16183    400    0    1.05    0.95;
    10139    2    0    0    0    0    0    1.03742    -1.81786    400    0    1.05    0.95;
    10140    2    0    0    0    0    0    1.03856    -1.33469    400    0    1.05    0.95;
    10141    2    0    0    0    0    0    1.01264    -1.61676    400    0    1.05    0.95;
    10142    1    0    0    0    0    0    1.03744    -4.88394    400    0    1.05    0.95;
    10143    1    0    0    0    0    0    1.03597    -3.0404    400    0    1.05    0.95;
    10144    1    0    0    0    0    0    1.03599    -3.03915    400    0    1.05    0.95;
    10145    1    0    0    0    0    0    1.01027    -3.74196    400    0    1.05    0.95;
    10146    2    0    0    0    0    0    1.04296    -3.5178    220    0    1.11    0.95;
    10147    1    0    0    0    0    0    1.03128    -5.37046    400    0    1.05    0.95;
    10148    1    0    0    0    0    0    1.07357    -7.15426    220    0    1.11    0.95;
    10149    1    0    0    0    0    0    1.07355    -7.15711    220    0    1.11    0.95;
    10150    2    0    0    0    0    0    1.04015    -3.34555    400    0    1.05    0.95;
    10151    1    0    0    0    0    0    1.04146    -3.0972    400    0    1.05    0.95;
    10152    1    0    0    0    0    0    1.04668    -1.42588    400    0    1.05    0.95;
    10153    1    0    0    0    0    0    1.03101    -2.84339    400    0    1.05    0.95;
    10154    1    80    20    0    0    0    1.03599    -4.25547    220    0    1.11    0.95;
    10155    1    0    0    0    0    0    1.08192    -7.36524    220    0    1.11    0.95;
    10156    1    0    0    0    0    0    1.03079    -5.15792    400    0    1.05    0.95;
    10157    1    0    0    0    0    0    1.08715    -5.5406    220    0    1.11    0.95;
    10158    1    0    0    0    0    0    1.01375    -2.96684    400    0    1.05    0.95;
    10159    1    0    0    0    0    0    1.11    -4.89462    220    0    1.11    0.95;
    10160    1    0    0    0    0    0    1.0642    -17.66826    220    0    1.11    0.95;
    10161    1    0    0    0    0    0    1.02091    -4.68112    400    0    1.05    0.95;
    10162    1    0    0    0    0    0    1.05927    -8.90546    220    0    1.11    0.95;
    10163    1    0    0    0    0    0    1.09451    -7.44737    220    0    1.11    0.95;
    10164    1    0    0    0    0    0    1.02895    -4.92842    400    0    1.05    0.95;
    10165    1    0    0    0    0    0    1.03338    -5.57007    400    0    1.05    0.95;
    10166    1    0    0    0    0    0    1.06606    -6.42146    220    0    1.11    0.95;
    10167    1    0    0    0    0    0    1.02906    -5.04152    400    0    1.05    0.95;
    10168    1    0    0    0    0    0    1.02906    -5.04152    400    0    1.05    0.95;
    10169    1    0    0    0    0    0    1.02941    -4.99501    400    0    1.05    0.95;
    10170    1    0    0    0    0    0    1.02941    -4.99501    400    0    1.05    0.95;
    10171    2    -104.8    -159    0    0    0    1.02955    -4.63616    400    0    1.05    0.95;
    10172    1    247.4    -57.5    0    0    0    1.02972    -6.04019    400    0    1.05    0.95;
    10173    1    247.4    -57.5    0    0    0    1.02972    -6.04019    400    0    1.05    0.95;
    10174    1    371.5    403.5    0    0    0    1.02061    -6.26044    400    0    1.05    0.95;
    10176    2    -249.9    162.6    0    0    0    1.02979    -4.79163    400    0    1.05    0.95;
    10177    2    -249.9    162.6    0    0    0    1.02979    -4.79163    400    0    1.05    0.95;
    10178    1    52.5    207.2    0    0    0    1.02727    -10.4183    400    0    1.05    0.95;
    10179    1    379.5    54.6    0    0    0    1.03892    -13.22007    400    0    1.05    0.95;
    10180    1    73.6    -95.6    0    0    0    1.08759    -16.75353    220    0    1.11    0.95;
    10181    1    73.6    -95.6    0    0    0    1.08759    -16.75353    220    0    1.11    0.95;
    10182    1    107.2    -44.4    0    0    0    1.05    -12.71113    400    0    1.05    0.95;
    10183    1    86    8    0    0    0    1.04861    -10.45398    400    0    1.05    0.95;
    10184    1    70    49    0    0    0    1.05073    -14.33097    220    0    1.11    0.95;
    10185    1    0    0    0    0    0    1.04939    -12.67172    400    0    1.05    0.95;
    10186    2    0    0    0    0    0    1.08932    -7.60913    220    0    1.11    0.95;
    10187    2    0    0    0    0    0    1.0894    -7.57617    220    0    1.11    0.95;
    10188    2    0    0    0    0    0    1.04594    -9.12003    400    0    1.05    0.95;
    10189    2    10.2    0    0    0    0    1.04556    -10.36714    400    0    1.05    0.95;
    10190    2    0    0    0    0    0    1.04288    -9.96023    400    0    1.05    0.95;
    10191    2    0    0    0    0    0    1.04288    -9.95495    400    0    1.05    0.95;
    10192    2    0    0    0    0    0    1.04073    -11.04322    220    0    1.11    0.95;
    10193    1    0    0    0    0    0    1.04073    -11.04554    220    0    1.11    0.95;
    10194    2    0    0    0    0    0    1.03584    -9.39911    400    0    1.05    0.95;
    10195    1    0    0    0    0    0    1.03662    -9.43812    400    0    1.05    0.95;
    10196    2    0    0    0    0    0    1.04091    -12.69816    400    0    1.05    0.95;
    10197    1    295    51.9    0    0    0    1.04399    -12.22816    400    0    1.05    0.95;
    10198    1    0    0    0    0    0    1.04664    -10.86919    400    0    1.05    0.95;
    10199    1    308    40    0    0    0    1.08152    -10.10172    220    0    1.11    0.95;
    10200    1    0    0    0    0    0    1.08153    -10.08501    220    0    1.11    0.95;
...
%    10287    1    0    0    0    0    0    1    0    110    0    1.12    0.95;    % this bus is isolated (rdz)
    10288    2    197.5    44.6    0    0    0    1.03369    -17.16989    110    0    1.12    0.95;
    10289    2    124.6    23.4    0    0    0    1.05256    -17.86813    110    0    1.12    0.95;
    10290    2    148.9    31.1    0    0    0    1.06119    -22.81444    110    0    1.12    0.95;
    10291    2    264.7    53.5    0    0    0    1.08362    -23.82921    110    0    1.12    0.95;
    10292    2    364.8    158.7    0    0    0    1.08678    -12.45458    110    0    1.12    0.95;
    10293    2    54.6    21.6    0    0    0    1.07356    -17.48899    110    0    1.12    0.95;
    10294    2    17.5    3.9    0    0    1    1.08819    -13.63431    110    0    1.12    0.95;
    10295    2    344.4    104    0    0    0    0.99474    -17.18159    110    0    1.12    0.95;
    10296    2    275.3    104.1    0    0    0    1.08634    -17.92203    110    0    1.12    0.95;
    10297    1    163.6    2.3    0    0    0    1.11082    -7.22832    110    0    1.12    0.95;
    10298    1    90.7    61    0    0    0    1.07174    -6.78749    110    0    1.12    0.95;
    10299    1    314    87    0    0    0    1.04695    -7.84988    110    0    1.12    0.95;
    10300    1    34    13    0    0    0    1.04421    -10.88209    110    0    1.12    0.95;
    10301    1    107    -22    0    0    0    1.07855    -7.22395    110    0    1.12    0.95;
    10302    1    161    58    0    0    0    1.09222    -10.5003    110    0    1.12    0.95;
    10303    1    161.5    37    0    0    0    1.05534    -10.03917    110    0    1.12    0.95;
    10304    1    161.5    37    0    0    0    1.05534    -10.03917    110    0    1.12    0.95;
    10305    1    232    -45.9    0    0    0    1.10778    -8.12369    110    0    1.12    0.95;
    10306    1    143    58.1    0    0    0    1.09145    -6.39794    110    0    1.12    0.95;
    10307    1    111.5    32.5    0    0    0    1.07241    -10.07733    110    0    1.12    0.95;
    10308    1    111.5    32.5    0    0    0    1.09137    -7.5084    110    0    1.12    0.95;
    10309    1    124    8.1    0    0    0    1.06294    -5.43913    110    0    1.12    0.95;
    10310    1    28.5    6    0    0    0    1.04084    -11.86881    110    0    1.12    0.95;
    10311    1    28.5    6    0    0    0    1.04084    -11.86881    110    0    1.12    0.95;
    10312    1    135    74    0    0    0    1.0479    -8.54622    110    0    1.12    0.95;
    10313    1    0    0    0    0    0    1.04454    -5.10084    110    0    1.12    0.95;
    10314    1    0    0    0    0    0    1.04454    -5.09922    110    0    1.12    0.95;
    10315    1    110    34    0    0    0    1.09352    -4.05964    110    0    1.12    0.95;
    10316    1    110    34    0    0    0    1.09338    -4.06012    110    0    1.12    0.95;
    10317    1    100    32    0    0    0    1.09382    -4.05869    110    0    1.12    0.95;
    10318    1    37    35    0    0    0    1.05289    -4.68355    110    0    1.12    0.95;
    10319    1    93    80    0    0    0    1.06177    -7.11307    110    0    1.12    0.95;
    10320    1    30    18    0    0    0    1.07986    -4.96142    110    0    1.12    0.95;
    10321    1    189    38    0    0    0    1.0353    -12.90356    110    0    1.12    0.95;
    10322    1    78.5    21    0    0    0    1.07974    -7.23949    110    0    1.12    0.95;
    10323    1    78.5    21    0    0    0    1.07974    -7.23949    110    0    1.12    0.95;
    10324    1    190    22    0    0    0    1.09021    -7.80898    110    0    1.12    0.95;
    10325    1    42.6    31.4    0    0    0    1.03672    -5.06258    110    0    1.12    0.95;
    10326    1    170.4    125.6    0    0    0    1.05028    -6.56373    110    0    1.12    0.95;
    10327    1    106    50    0    0    0    1.02247    -11.25013    110    0    1.12    0.95;
    10328    1    94    60.6    0    0    0    1.01616    -7.46571    110    0    1.12    0.95;
    10329    1    94    60.6    0    0    0    1.01616    -7.46571    110    0    1.12    0.95;
    10330    1    133.5    25.5    0    0    0    1.02385    -13.52995    110    0    1.12    0.95;
    10331    1    133.5    25.5    0    0    0    1.02385    -13.52995    110    0    1.12    0.95;
    10332    1    121    31.9    0    0    0    1.03381    -6.83166    110    0    1.12    0.95;
    10333    1    125    3    0    0    0    1.11843    -9.53252    110    0    1.12    0.95;
    10334    1    210    0    0    0    0    1.0128    -21.49132    110    0    1.12    0.95;
    10335    1    62    33.5    0    0    0    1.05347    -8.04462    110    0    1.12    0.95;
    10336    1    62    33.5    0    0    0    1.05347    -8.04462    110    0    1.12    0.95;
    10337    1    85    5    0    0    0    1.02004    -5.32478    110    0    1.12    0.95;
    10338    1    85    5    0    0    0    1.02118    -4.83383    110    0    1.12    0.95;
    10339    1    147    36    0    0    0    1.04451    -5.10546    110    0    1.12    0.95;
    10340    1    147    36    0    0    0    1.04456    -5.09664    110    0    1.12    0.95;
    10341    1    44    0    0    0    0    1.08635    -5.03949    110    0    1.12    0.95;
    10342    1    33    -19    0    0    0    1.02361    -4.10959    110    0    1.12    0.95;
    10343    1    107    22    0    0    0    1.04896    -6.31433    110    0    1.12    0.95;
    10344    1    157    46    0    0    0    1.08553    -8.88587    110    0    1.12    0.95;
    10345    1    95    21    0    0    0    1.10631    -10.27971    110    0    1.12    0.95;
    10346    1    67.5    7    0    0    0    1.04395    -11.77881    110    0    1.12    0.95;
    10347    1    67.5    7    0    0    0    1.04395    -11.77881    110    0    1.12    0.95;
    10348    1    102    17    0    0    0    1.07055    -6.88126    110    0    1.12    0.95;
    10349    1    102    17    0    0    0    1.05869    -6.96516    110    0    1.12    0.95;
    10350    1    109    25    0    0    0    1.09006    -3.22107    110    0    1.12    0.95;
    10351    1    181    45.1    0    0    0    1.06554    -5.93954    110    0    1.12    0.95;
    10352    1    45    25    0    0    0    1.06555    -4.37582    110    0    1.12    0.95;
    10353    1    62    38.5    0    0    0    1.11857    -9.31326    110    0    1.12    0.95;
    10354    1    62    38.5    0    0    0    1.11857    -9.31326    110    0    1.12    0.95;
    10355    1    300    57    0    0    0    1.05618    -10.4405    110    0    1.12    0.95;
    10356    1    15    3    0    0    0    1.04325    -18.03777    110    0    1.12    0.95;
    10357    1    79    6    0    0    0    1.08647    -8.12785    110    0    1.12    0.95;
    10358    1    296    58    0    0    0    1.12    -10.52462    110    0    1.12    0.95;
    10359    1    0    0    0    0    0    1.05447    -10.30796    110    0    1.12    0.95;
    10360    1    240    71    0    0    0    1.0541    -10.20427    110    0    1.12    0.95;
    10361    1    265    46.1    0    0    0    1.05135    -11.29547    110    0    1.12    0.95;
    10366    1    0    0    0    0    0    1.02163    -8.17421    22    0    1.12    0.95;
    10367    1    0    0    0    0    0    1.02164    -8.17421    110    0    1.12    0.95;
    10368    1    0    0    0    0    0    1.0553    -8.75319    110    0    1.12    0.95;
    10369    1    0    0    0    0    0    1.05529    -8.75319    22    0    1.12    0.95;
    1    1    0    0    0    0    1    1.10683    -0.3147    220    1    1.11    0.95;
    2    1    0    0    0    0    1    1.10783    1.34368    220    1    1.11    0.95;
    3    1    0    0    0    0    1    1.05771    -30.03567    220    1    1.11    0.95;
    4    1    0    0    0    0    1    1.05765    -30.04457    220    1    1.11    0.95;
    5    1    0    0    0    0    1    1.06886    -32.42333    220    1    1.11    0.95;
    6    1    0    0    0    0    1    1.07562    -5.79827    220    1    1.11    0.95;
    7    1    0    0    0    0    1    1.0756    -5.79861    220    1    1.11    0.95;
    8    1    0    0    0    0    1    1.0814    -18.53453    220    1    1.11    0.95;
    9    1    0    0    0    0    1    1.08169    -18.51761    220    1    1.11    0.95;
    10    1    0    0    0    0    1    1.08481    -22.24216    220    1    1.11    0.95;
    11    1    0    0    0    0    1    1.02329    -13.60481    400    1    1.05    0.95;
    12    1    0    0    0    0    1    1.02339    -13.59722    400    1    1.05    0.95;
    13    1    0    0    0    0    1    1.00602    -17.95869    400    1    1.05    0.95;
    14    1    0    0    0    0    1    1.03516    -18.26116    220    1    1.11    0.95;
    15    1    0    0    0    0    1    1.03539    -18.2591    220    1    1.11    0.95;
    16    1    0    0    0    0    1    1.03545    -18.24859    220    1    1.11    0.95;
    17    1    0    0    0    0    1    1.01167    -23.047    220    1    1.11    0.95;
    18    1    0    0    0    0    1    1.01817    -22.57535    220    1    1.11    0.95;
    19    1    0    0    0    0    1    1.02339    -11.87636    400    1    1.05    0.95;
    20    1    0    0    0    0    1    1.02345    -11.86651    400    1    1.05    0.95;
    21    1    0    0    0    0    1    1.00891    -21.65053    400    1    1.05    0.95;
    22    1    0    0    0    0    1    1.01162    -17.61066    400    1    1.05    0.95;
    23    1    0    0    0    0    1    1.01162    -17.61066    400    1    1.05    0.95;
    24    2    10    20.1    0    0    1    1.07767    -24.32403    220    1    1.11    0.95;
    25    2    10    20.1    0    0    1    1.0776    -24.32136    220    1    1.11    0.95;
    26    1    0    0    0    0    1    1.08577    -4.75886    220    1    1.11    0.95;
    27    1    0    0    0    0    1    1.0859    -4.77005    220    1    1.11    0.95;
    28    1    0    0    0    0    1    1.03847    -19.52171    220    1    1.11    0.95;
    29    1    0    0    0    0    1    1.03841    -19.52178    220    1    1.11    0.95;
    30    1    0    0    0    0    1    1.03437    -17.88953    220    1    1.11    0.95;
    31    1    0    0    0    0    1    1.0343    -17.90171    220    1    1.11    0.95;
    32    1    0    0    0    0    1    1.08456    -2.60422    220    1    1.11    0.95;
    33    1    0    0    0    0    1    1.08446    -2.62715    220    1    1.11    0.95;
    34    1    0    0    0    0    1    1.02081    -14.73024    400    1    1.05    0.95;
    35    1    0    0    0    0    1    1.02077    -14.73529    400    1    1.05    0.95;
    36    1    0    0    0    0    1    1.00827    -17.96045    400    1    1.05    0.95;
    37    3    48.7    86.2    0    0    1    1.11    0    220    1    1.11    0.95;
    38    2    54.5    89.9    0    0    1    1.11    1.64313    220    1    1.11    0.95;
    39    2    20.1    40.2    0    0    1    1.11    1.63704    220    1    1.11    0.95;
    40    2    60.3    120.6    0    0    1    1.04756    0.02164    400    1    1.05    0.95;
    41    2    60.3    120.6    0    0    1    1.04755    0.02748    400    1    1.05    0.95;
    42    1    0    0    0    0    1    1.02593    -19.15636    220    1    1.11    0.95;
    43    1    0    0    0    0    1    1.02582    -19.16305    220    1    1.11    0.95;
    44    1    0    0    0    0    1    1.05    -1.58839    400    1    1.05    0.95;
    45    1    0    0    0    0    1    1.04998    -1.59196    400    1    1.05    0.95;
    46    1    0    0    0    0    1    1.03111    -18.62695    220    1    1.11    0.95;
    47    1    0    0    0    0    1    1.06103    -7.84552    220    1    1.11    0.95;
    48    1    0    0    0    0    1    1.06104    -7.86017    220    1    1.11    0.95;
    49    1    0    0    0    0    1    1.09337    -12.42931    220    2    1.11    0.95;
    50    1    0    0    0    0    1    1.09039    -11.16452    220    2    1.11    0.95;
    51    1    0    0    0    0    1    1.10263    -9.84324    220    2    1.11    0.95;
    52    1    0    0    0    0    1    1.10261    -9.84649    220    2    1.11    0.95;
    53    1    0    0    0    0    1    1.07037    -14.43296    220    2    1.11    0.95;
    54    1    3.2    1    0    0    1    1.09978    -9.00933    220    2    1.11    0.95;
    55    1    0    0    0    0    1    1.09984    -9.00618    220    2    1.11    0.95;
    56    1    0    0    0    0    1    1.03565    -8.72229    400    2    1.05    0.95;
    57    2    26.1    60.3    0    0    1    1.10991    -10.73043    220    2    1.11    0.95;
    58    2    54.3    120.6    0    0    1    1.1097    -10.73757    220    2    1.11    0.95;
    59    2    13.1    30.1    0    0    1    1.11    -10.72656    220    2    1.11    0.95;
    60    2    26.1    50.2    0    0    1    1.05    -9.56951    400    2    1.05    0.95;
    61    2    26.1    50.2    0    0    1    1.04992    -9.56854    400    2    1.05    0.95;
    62    1    0    0    0    0    1    1.09416    -9.75714    220    2    1.11    0.95;
    63    1    0    0    0    0    1    1.04454    -9.88832    400    2    1.05    0.95;
    64    1    0    0    0    0    1    1.04453    -9.89003    400    2    1.05    0.95;
    65    1    0    0    0    0    1    1.04746    -10.98572    400    2    1.05    0.95;
    66    1    0    0    0    0    1    1.07714    -12.62676    220    2    1.11    0.95;
    67    1    0    0    0    0    1    1.07713    -12.62172    220    2    1.11    0.95;
    68    1    0    0    0    0    1    1.04521    -9.56117    400    2    1.05    0.95;
    69    1    0    0    0    0    1    1.0452    -9.55972    400    2    1.05    0.95;
    70    2    13.1    30.1    0    0    1    1.10739    -8.60021    220    2    1.11    0.95;
    71    2    13.1    30.1    0    0    1    1.10739    -8.60343    220    2    1.11    0.95;
    72    2    13.1    30.1    0    0    1    1.04287    -8.4031    400    2    1.05    0.95;
    73    2    26.1    60.3    0    0    1    1.0429    -8.40447    400    2    1.05    0.95;
    74    2    149.7    60.3    0    0    1    1.1043    -11.61975    220    2    1.11    0.95;
    75    1    29.1    10    0    0    1    1.10428    -11.62108    220    2    1.11    0.95;
    76    1    0    0    0    0    1    1.09619    -9.86894    220    2    1.11    0.95;
    77    1    0    0    0    0    1    1.0962    -9.86604    220    2    1.11    0.95;
    78    1    0    0    0    0    1    1.10133    -11.58367    220    2    1.11    0.95;
    79    1    0    0    0    0    1    1.10135    -11.58785    220    2    1.11    0.95;
    80    1    0    0    0    0    1    1.05    -9.02748    400    2    1.05    0.95;
    81    1    0    0    0    0    1    1.04998    -9.03312    400    2    1.05    0.95;
    82    1    0    0    0    0    1    1.09853    -11.11488    220    2    1.11    0.95;
    83    1    0    0    0    0    1    1.09948    -10.99534    220    2    1.11    0.95;
    84    1    0    0    0    0    1    1.07865    -11.42219    220    2    1.11    0.95;
    85    1    0    0    0    0    1    1.09226    -4.09446    220    3    1.11    0.95;
    86    1    9.4    0    0    0    1    1.09034    -8.35201    220    3    1.11    0.95;
    87    1    8.2    0    0    0    1    1.09035    -8.35113    220    3    1.11    0.95;
    88    1    0    0    0    0    1    1.09294    -3.5166    220    3    1.11    0.95;
    89    1    0    0    0    0    1    1.09307    -3.50133    220    3    1.11    0.95;
    90    1    0    0    0    0    1    1.10865    -2.97501    220    3    1.11    0.95;
    91    1    0    0    0    0    1    1.10867    -2.97695    220    3    1.11    0.95;
    92    1    0    0    0    0    1    1.06576    -6.13735    220    3    1.11    0.95;
    93    1    0    0    0    0    1    1.06553    -6.13858    220    3    1.11    0.95;
    94    2    28.1    70.3    0    0    1    1.10247    -2.50735    220    3    1.11    0.95;
    95    2    42.2    103.5    0    0    1    1.10442    -2.16364    220    3    1.11    0.95;
    96    1    7.7    -25    0    0    1    1.09045    -3.5891    220    3    1.11    0.95;
    97    1    0    0    0    0    1    1.09043    -3.58958    220    3    1.11    0.95;
    98    2    32.2    142.7    0    0    1    1.05    -3.80394    400    3    1.05    0.95;
    99    1    0    0    0    0    1    1.04993    -3.83168    400    3    1.05    0.95;
    100    1    0    0    0    0    1    1.06235    -5.1257    220    3    1.11    0.95;
    101    1    0    0    0    0    1    1.1067    -2.92815    220    3    1.11    0.95;
    102    1    0    0    0    0    1    1.10667    -2.92209    220    3    1.11    0.95;
    103    1    45.1    7.9    0    0    1    1.09504    -3.92095    220    3    1.11    0.95;
    104    1    0    0    0    0    1    1.09498    -3.92621    220    3    1.11    0.95;
    105    1    0    0    0    0    1    1.09907    -2.33167    220    3    1.11    0.95;
    106    1    0    0    0    0    1    1.09897    -2.33346    220    3    1.11    0.95;
    107    1    0    0    0    0    1    1.09932    -3.47111    220    3    1.11    0.95;
    108    1    0    0    0    0    1    1.09932    -3.4761    220    3    1.11    0.95;
    109    1    0    0    0    0    1    1.04336    -1.94993    400    3    1.05    0.95;
    110    1    0    0    0    0    1    1.04336    -1.95191    400    3    1.05    0.95;
    111    1    0    0    0    0    1    1.10343    -2.4016    220    3    1.11    0.95;
    112    1    0    0    0    0    1    1.10348    -2.40387    220    3    1.11    0.95;
    113    1    0    0    0    0    1    1.08227    -3.60332    220    3    1.11    0.95;
    114    1    0    0    0    0    1    1.08218    -3.61107    220    3    1.11    0.95;
    115    2    29.4    18.5    0    0    1    1.09646    -3.40562    220    3    1.11    0.95;
    116    1    0    0    0    0    1    1.09644    -3.41548    220    3    1.11    0.95;
    117    1    0    0    0    0    1    1.09039    -8.33168    220    3    1.11    0.95;
    118    1    0    0    0    0    1    1.09039    -8.32974    220    3    1.11    0.95;
    119    1    0    0    0    0    1    1.05297    -6.17162    220    3    1.11    0.95;
    120    1    0    0    0    0    1    1.05294    -6.16856    220    3    1.11    0.95;
    121    2    0    0    0    0    1    1.10918    -2.88774    220    3    1.11    0.95;
    122    2    10    44.2    0    0    1    1.10922    -2.89696    220    3    1.11    0.95;
...
];

%% generator data
%    bus    Pg    Qg    Qmax    Qmin    Vg    mBase    status    Pmax    Pmin    Pc1    Pc2    Qc1min    Qc1max    Qc2min    Qc2max    ramp_agc    ramp_10    ramp_30    ramp_q    apf
mpc.gen = [
    10071    133.9    0.7    99999    -99999    1.07617    285    1    204.6    133.9    0    0    0    0    0    0    0    0    0    0    0;
    10079    359.9    4404.9    99999    -99999    1.01319    2031    1    549.9    359.9    0    0    0    0    0    0    0    0    0    0    0;
    10080    7.6    -358.3    99999    -99999    1.02855    119    1    11.6    7.6    0    0    0    0    0    0    0    0    0    0    0;
    10090    410.4    188.1    99999    -99999    1.04139    806    1    627    410.4    0    0    0    0    0    0    0    0    0    0    0;
    10094    554.4    10091.5    99999    -99999    1.03526    970    1    847    554.4    0    0    0    0    0    0    0    0    0    0    0;
    10095    121.8    -2580.1    99999    -99999    1.02969    1439    1    1241.5    121.8    0    0    0    0    0    0    0    0    0    0    0;
    10100    1267.2    -118.4    99999    -99999    1.04073    2202    1    1936    1267.2    0    0    0    0    0    0    0    0    0    0    0;
    10104    540    56.7    99999    -99999    1.04409    939    1    825    540    0    0    0    0    0    0    0    0    0    0    0;
    10115    280.8    -228.6    99999    -99999    1.00234    492    1    429    280.8    0    0    0    0    0    0    0    0    0    0    0;
    10116    280.8    -228.6    99999    -99999    1.00234    492    1    429    280.8    0    0    0    0    0    0    0    0    0    0    0;
    10118    1080    63.4    99999    -99999    1.04097    1876    1    1650    1080    0    0    0    0    0    0    0    0    0    0    0;
    10126    424.8    -432.6    99999    -99999    1.00802    786    1    649    424.8    0    0    0    0    0    0    0    0    0    0    0;
    10129    1656    -432.6    99999    -99999    1.04538    2974    1    2530    1656    0    0    0    0    0    0    0    0    0    0    0;
    10132    583.2    -91    99999    -99999    1.02908    1014    1    891    583.2    0    0    0    0    0    0    0    0    0    0    0;
    10139    648    -206.7    99999    -99999    1.03742    1143    1    990    648    0    0    0    0    0    0    0    0    0    0    0;
    10140    972    -194.4    99999    -99999    1.03856    1705    1    1485    972    0    0    0    0    0    0    0    0    0    0    0;
    10141    1224    -437.3    99999    -99999    1.01264    2125    1    1870    1224    0    0    0    0    0    0    0    0    0    0    0;
    10146    115.2    -176.7    99999    -99999    1.04296    224    1    176    115.2    0    0    0    0    0    0    0    0    0    0    0;
    10150    201.6    10.8    99999    -99999    1.04015    427    1    308    201.6    0    0    0    0    0    0    0    0    0    0    0;
    10171    84.6    -9949    99999    -99999    1.02955    715    1    129.3    84.6    0    0    0    0    0    0    0    0    0    0    0;
    10176    191    283.3    99999    -99999    1.02979    346    1    291.8    191    0    0    0    0    0    0    0    0    0    0    0;
    10177    191    283.3    99999    -99999    1.02979    346    1    291.8    191    0    0    0    0    0    0    0    0    0    0    0;
    10186    342.7    27.1    99999    -99999    1.08932    618    1    534.6    342.7    0    0    0    0    0    0    0    0    0    0    0;
    10187    342.7    27.2    99999    -99999    1.0894    618    1    534.6    342.7    0    0    0    0    0    0    0    0    0    0    0;
    10188    347.8    -76.3    99999    -99999    1.04594    618    1    531.3    347.8    0    0    0    0    0    0    0    0    0    0    0;
    10189    283    -60.7    99999    -99999    1.04556    620    1    542.3    283    0    0    0    0    0    0    0    0    0    0    0;
    10190    371.5    -14.2    99999    -99999    1.04288    683    1    600.6    371.5    0    0    0    0    0    0    0    0    0    0    0;
    10191    370.8    -13.7    99999    -99999    1.04288    682    1    599.5    370.8    0    0    0    0    0    0    0    0    0    0    0;
    10192    111.6    19.1    99999    -99999    1.04073    281    1    247.5    111.6    0    0    0    0    0    0    0    0    0    0    0;
    10194    64.8    -85.2    99999    -99999    1.03584    184    1    143    64.8    0    0    0    0    0    0    0    0    0    0    0;
    10196    108    -46.1    99999    -99999    1.04091    215    1    165    108    0    0    0    0    0    0    0    0    0    0    0;
    10223    125.5    190.8    99999    -99999    1.04073    189    1    125.5    0    0    0    0    0    0    0    0    0    0    0    0;
    10225    77.8    131.8    99999    -99999    1.06248    333    1    272.8    77.8    0    0    0    0    0    0    0    0    0    0    0;
    10226    34.6    97.3    99999    -99999    1.06441    198    1    140.8    34.6    0    0    0    0    0    0    0    0    0    0    0;
    10227    11.5    71.5    99999    -99999    1.10423    191    1    17.6    11.5    0    0    0    0    0    0    0    0    0    0    0;
    10228    18.7    146.1    99999    -99999    1.06247    135    1    28.6    18.7    0    0    0    0    0    0    0    0    0    0    0;
    10229    39.6    24.8    99999    -99999    1.06902    85    1    60.5    39.6    0    0    0    0    0    0    0    0    0    0    0;
    10230    0    18.2    99999    -99999    1.07323    132    1    0.1    0    0    0    0    0    0    0    0    0    0    0    0;
    10232    11.2    36.3    99999    -99999    1.01987    64    1    17.2    11.2    0    0    0    0    0    0    0    0    0    0    0;
    10233    45.4    68.4    99999    -99999    1.04665    79    1    69.3    45.4    0    0    0    0    0    0    0    0    0    0    0;
    10234    3.6    205.6    99999    -99999    1.09129    115    1    5.5    3.6    0    0    0    0    0    0    0    0    0    0    0;
    10235    28.8    18.1    99999    -99999    1.08091    83    1    44    28.8    0    0    0    0    0    0    0    0    0    0    0;
    10236    119.5    37.8    99999    -99999    1.07896    219    1    182.6    119.5    0    0    0    0    0    0    0    0    0    0    0;
    10237    50.4    132    99999    -99999    1.08023    121    1    77    50.4    0    0    0    0    0    0    0    0    0    0    0;
    10238    61.9    122.2    99999    -99999    1.00809    179    1    94.6    61.9    0    0    0    0    0    0    0    0    0    0    0;
    10239    62.6    39.5    99999    -99999    1.06246    109    1    95.7    62.6    0    0    0    0    0    0    0    0    0    0    0;
    10240    0    11.5    99999    -99999    1.0666    128    1    0.1    0    0    0    0    0    0    0    0    0    0    0    0;
    10246    146.2    -49.3    99999    -99999    1.03917    262    1    223.3    146.2    0    0    0    0    0    0    0    0    0    0    0;
    10247    102.2    -1.7    99999    -99999    1.12    215    1    156.2    102.2    0    0    0    0    0    0    0    0    0    0    0;
    10248    122.4    6.2    99999    -99999    1.12    241    1    187    122.4    0    0    0    0    0    0    0    0    0    0    0;
    10249    128    -23.9    99999    -99999    1.00179    225    1    195.6    128    0    0    0    0    0    0    0    0    0    0    0;
    10250    374.4    -1.1    99999    -99999    1.0404    650    1    572    374.4    0    0    0    0    0    0    0    0    0    0    0;
    10251    374.4    -2.6    99999    -99999    1.03995    650    1    572    374.4    0    0    0    0    0    0    0    0    0    0    0;
    10252    374.4    -2.5    99999    -99999    1.03994    650    1    572    374.4    0    0    0    0    0    0    0    0    0    0    0;
    10253    187.9    33.5    99999    -99999    1.01534    341    1    287.1    187.9    0    0    0    0    0    0    0    0    0    0    0;
    10254    342.7    30.5    99999    -99999    1.04999    598    1    523.6    342.7    0    0    0    0    0    0    0    0    0    0    0;
    10255    121    5.4    99999    -99999    1.03994    210    1    184.8    121    0    0    0    0    0    0    0    0    0    0    0;
    10256    280.8    31.7    99999    -99999    1.11998    489    1    429    280.8    0    0    0    0    0    0    0    0    0    0    0;
    10257    140.4    16.3    99999    -99999    1.11817    250    1    214.5    140.4    0    0    0    0    0    0    0    0    0    0    0;
    10258    129.6    -3    99999    -99999    1.10518    230    1    198    129.6    0    0    0    0    0    0    0    0    0    0    0;
    10259    283.7    8    99999    -99999    0.98182    519    1    433.4    283.7    0    0    0    0    0    0    0    0    0    0    0;
    10260    425.5    9.2    99999    -99999    1.10941    741    1    650.1    425.5    0    0    0    0    0    0    0    0    0    0    0;
    10261    579.6    15.8    99999    -99999    0.99592    1100    1    951.5    579.6    0    0    0    0    0    0    0    0    0    0    0;
    10262    579.6    15.9    99999    -99999    0.99592    1100    1    951.5    579.6    0    0    0    0    0    0    0    0    0    0    0;
    10263    67.7    7.8    99999    -99999    1.09219    121    1    103.4    67.7    0    0    0    0    0    0    0    0    0    0    0;
    10264    280.8    -4.2    99999    -99999    1.00552    489    1    429    280.8    0    0    0    0    0    0    0    0    0    0    0;
    10265    280.8    -7.2    99999    -99999    1.10573    496    1    429    280.8    0    0    0    0    0    0    0    0    0    0    0;
    10266    3.6    -8.1    99999    -99999    1.04403    72    1    5.5    3.6    0    0    0    0    0    0    0    0    0    0    0;
    10267    4.3    43.3    99999    -99999    1.08131    120    1    6.6    4.3    0    0    0    0    0    0    0    0    0    0    0;
    10268    20.9    15.8    99999    -99999    1.06395    37    1    31.9    20.9    0    0    0    0    0    0    0    0    0    0    0;
    10269    68.4    127.9    99999    -99999    1.07428    338    1    291.5    68.4    0    0    0    0    0    0    0    0    0    0    0;
    10270    0    24.4    99999    -99999    1.05973    40    1    0.1    0    0    0    0    0    0    0    0    0    0    0    0;
    10271    156.2    71.4    99999    -99999    1.06494    286    1    238.7    156.2    0    0    0    0    0    0    0    0    0    0    0;
    10272    24.5    16.2    99999    -99999    1.072    116    1    37.4    24.5    0    0    0    0    0    0    0    0    0    0    0;
    10273    165.6    83.2    99999    -99999    1.02431    321    1    253    165.6    0    0    0    0    0    0    0    0    0    0    0;
    10274    61.2    118.3    99999    -99999    1.06504    317    1    225.5    61.2    0    0    0    0    0    0    0    0    0    0    0;
    10275    21.6    5.4    99999    -99999    1.06182    125    1    110    21.6    0    0    0    0    0    0    0    0    0    0    0;
    10276    107.3    19.9    99999    -99999    1.06034    189    1    163.9    107.3    0    0    0    0    0    0    0    0    0    0    0;
    10277    80.6    60    99999    -99999    1.06264    225    1    123.2    80.6    0    0    0    0    0    0    0    0    0    0    0;
    10278    129.6    18.8    99999    -99999    1.11356    233    1    198    129.6    0    0    0    0    0    0    0    0    0    0    0;
    10279    129.6    18.8    99999    -99999    1.11356    233    1    198    129.6    0    0    0    0    0    0    0    0    0    0    0;
    10281    2.9    25.3    99999    -99999    1.07868    20    1    4.4    2.9    0    0    0    0    0    0    0    0    0    0    0;
    10282    58.3    143.8    99999    -99999    1.06767    357    1    287.1    58.3    0    0    0    0    0    0    0    0    0    0    0;
    10284    418.3    179    99999    -99999    1.12    919    1    771.1    418.3    0    0    0    0    0    0    0    0    0    0    0;
    10285    0    -21.9    99999    -99999    1.0574    132    1    0.1    0    0    0    0    0    0    0    0    0    0    0    0;
    10288    20.9    -26.5    99999    -99999    1.03369    63    1    31.9    20.9    0    0    0    0    0    0    0    0    0    0    0;
    10289    0.7    -25    99999    -99999    1.05256    41    1    34.1    0.7    0    0    0    0    0    0    0    0    0    0    0;
    10290    28.1    27.1    99999    -99999    1.06119    49    1    42.9    28.1    0    0    0    0    0    0    0    0    0    0    0;
    10291    5.8    48.9    99999    -99999    1.08362    71    1    8.8    5.8    0    0    0    0    0    0    0    0    0    0    0;
    10292    312.5    164.1    99999    -99999    1.08678    638    1    477.4    312.5    0    0    0    0    0    0    0    0    0    0    0;
    10293    19.4    20.3    99999    -99999    1.07356    46    1    29.7    19.4    0    0    0    0    0    0    0    0    0    0    0;
    10294    7.9    33.2    99999    -99999    1.08819    74    1    12.1    7.9    0    0    0    0    0    0    0    0    0    0    0;
    10295    151.9    124.2    99999    -99999    0.99474    299    1    232.1    151.9    0    0    0    0    0    0    0    0    0    0    0;
    10296    197.3    132.4    99999    -99999    1.08634    461    1    301.4    197.3    0    0    0    0    0    0    0    0    0    0    0;
    24    110    89.2    140    -49    1.07767    235.3    1    221    110    0    0    0    0    0    0    0    0    0    0    0;
    25    135    -22    124    -22    1.0776    235.3    1    200    135    0    0    0    0    0    0    0    0    0    0    0;
    37    370    169.3    190    -19    1.11    426    1    370    240    0    0    0    0    0    0    0    0    0    0    0;
    37    370    -19    190    -19    1.11    426    1    370    240    0    0    0    0    0    0    0    0    0    0    0;
    38    370    34.1    190    -19    1.11    426    1    370    240    0    0    0    0    0    0    0    0    0    0    0;
    38    370    2.3    190    -19    1.11    426    1    370    240    0    0    0    0    0    0    0    0    0    0    0;
    39    370    94.4    190    -19    1.11    426    1    370    240    0    0    0    0    0    0    0    0    0    0    0;
    40    370    190    190    -19    1.04756    426    1    370    240    0    0    0    0    0    0    0    0    0    0    0;
    40    370    -19    190    -19    1.04756    426    1    370    240    0    0    0    0    0    0    0    0    0    0    0;
    40    370    -19    190    -19    1.04756    426    1    370    240    0    0    0    0    0    0    0    0    0    0    0;
    41    370    -0.1    190    -19    1.04755    426    1    370    240    0    0    0    0    0    0    0    0    0    0    0;
    41    370    -0.6    190    -19    1.04755    426    1    370    240    0    0    0    0    0    0    0    0    0    0    0;
    41    370    -0.6    190    -19    1.04755    426    1    370    240    0    0    0    0    0    0    0    0    0    0    0;
    57    110    37.2    152    -33    1.10991    235    1    215    110    0    0    0    0    0    0    0    0    0    0    0;
    57    171.6    152    152    -33    1.10991    235    1    220    125    0    0    0    0    0    0    0    0    0    0    0;
    58    125    149    149    -33    1.1097    235    1    225    125    0    0    0    0    0    0    0    0    0    0    0;
    58    0    0    149    -33    1    235    0    225    120    0    0    0    0    0    0    0    0    0    0    0;
    58    110    -33    149    -33    1.1097    235    1    225    110    0    0    0    0    0    0    0    0    0    0    0;
    59    225    149    149    -33    1.11    235    1    225    110    0    0    0    0    0    0    0    0    0    0    0;
    60    535    305.9    363    -47    1.05    588    1    535    255    0    0    0    0    0    0    0    0    0    0    0;
    61    278.8    -100    348    -100    1.04992    588    1    560    250    0    0    0    0    0    0    0    0    0    0    0;
    70    129    -11    105    -11    1.10739    235    1    225    129    0    0    0    0    0    0    0    0    0    0    0;
    71    129    59    105    -11    1.10739    235    1    225    129    0    0    0    0    0    0    0    0    0    0    0;
    71    0    0    99    -10    1    235    0    225    129    0    0    0    0    0    0    0    0    0    0    0;
    72    0    0    105    -11    1    235    0    225    129    0    0    0    0    0    0    0    0    0    0    0;
    72    129    -11    105    -11    1.04287    235    1    225    129    0    0    0    0    0    0    0    0    0    0    0;
    73    129    -10    99    -10    1.0429    235    1    225    129    0    0    0    0    0    0    0    0    0    0    0;
    73    129    -11    105    -11    1.0429    235    1    225    129    0    0    0    0    0    0    0    0    0    0    0;
    74    112    60    60    0    1.1043    120    1    112    0    0    0    0    0    0    0    0    0    0    0    0;
    94    220    131    131    -6    1.10247    270.6    1    220    125    0    0    0    0    0    0    0    0    0    0    0;
    94    225    97.3    131    -6    1.10247    270.6    1    225    140    0    0    0    0    0    0    0    0    0    0    0;
    95    225    131    131    -6    1.10442    270.6    1    225    130    0    0    0    0    0    0    0    0    0    0    0;
    95    225    131    131    -6    1.10442    270.6    1    225    125    0    0    0    0    0    0    0    0    0    0    0;
    95    225    -4.4    131    -6    1.10442    270.6    1    225    130    0    0    0    0    0    0    0    0    0    0    0;
    98    383    35.2    213    -31    1.05    426    1    383    220    0    0    0    0    0    0    0    0    0    0    0;
    98    380    -14.8    119    -31    1.05    435.3    1    380    220    0    0    0    0    0    0    0    0    0    0    0;
    115    12    0    0    0    1.09646    12    1    12    0    0    0    0    0    0    0    0    0    0    0    0;
    115    6    0    0    0    1.09646    6    1    6    0    0    0    0    0    0    0    0    0    0    0    0;
    121    0    0    120    -10    1    270.6    0    225    120    0    0    0    0    0    0    0    0    0    0    0;
    122    225    120    120    -10    1.10922    270.6    1    225    120    0    0    0    0    0    0    0    0    0    0    0;
    123    120    5.3    73    -1    1.10624    150    1    120    70    0    0    0    0    0    0    0    0    0    0    0;
    124    120    73    73    -1    1.10639    150    1    120    70    0    0    0    0    0    0    0    0    0    0    0;
    134    0    0    80    0    1    150    0    120    70    0    0    0    0    0    0    0    0    0    0    0;
    135    120    80    80    0    1.09923    150    1    120    70    0    0    0    0    0    0    0    0    0    0    0;
    136    80    31    31    0    1.07793    117.5    1    110    80    0    0    0    0    0    0    0    0    0    0    0;
    144    215    64.7    135    -35    1.10999    270.6    1    215    135    0    0    0    0    0    0    0    0    0    0    0;
    145    215    -35    135    -35    1.11    270.6    1    215    135    0    0    0    0    0    0    0    0    0    0    0;
    145    225    140    140    -35    1.11    270.6    1    225    135    0    0    0    0    0    0    0    0    0    0    0;
    146    225    -34.1    140    -36    1.04293    270.6    1    225    135    0    0    0    0    0    0    0    0    0    0    0;
    146    220    -34.1    137    -36    1.04293    270.6    1    220    135    0    0    0    0    0    0    0    0    0    0    0;
    152    0    0    72    -29    1    150    0    135    -135    0    0    0    0    0    0    0    0    0    0    0;
    152    0    0    72    -29    1    150    0    135    -135    0    0    0    0    0    0    0    0    0    0    0;
    153    0    0    72    -29    1    150    0    135    -135    0    0    0    0    0    0    0    0    0    0    0;
    153    0    0    72    -29    1    150    0    135    -135    0    0    0    0    0    0    0    0    0    0    0;
    154    120    85    85    -15    1.0916    150    1    120    94    0    0    0    0    0    0    0    0    0    0    0;
    155    120    85    85    -15    1.0916    150    1    120    94    0    0    0    0    0    0    0    0    0    0    0;
    155    0    0    85    -15    1    150    0    120    94    0    0    0    0    0    0    0    0    0    0    0;
    169    0    0    25    0    1    51.4    0    50    40    0    0    0    0    0    0    0    0    0    0    0;
    170    0    0    90    -15    1    150    0    120    80    0    0    0    0    0    0    0    0    0    0    0;
    170    0    0    25    0    1    51.4    0    50    45    0    0    0    0    0    0    0    0    0    0    0;
    172    100    119    119    -31    1.06808    252.4    1    232    100    0    0    0    0    0    0    0    0    0    0    0;
    172    0    0    111    -21    1    237.5    0    205    135    0    0    0    0    0    0    0    0    0    0    0;
    173    0    0    111    -21    1    237.5    0    205    135    0    0    0    0    0    0    0    0    0    0    0;
    173    0    0    102    -15    1    252.4    0    222    90    0    0    0    0    0    0    0    0    0    0    0;
    174    90    102    102    -15    1.03111    252.4    1    222    90    0    0    0    0    0    0    0    0    0    0    0;
    175    90    46.7    102    -15    1.03109    252.4    1    222    90    0    0    0    0    0    0    0    0    0    0    0;
    175    100    20.7    93    -10    1.03109    252.4    1    232    100    0    0    0    0    0    0    0    0    0    0    0;
...